<?xml version="1.0" encoding="UTF-8"?>

<!-- generated on 2026-02-10T19:46:11.632578+05:30 by Eclipse SUMO netconvert 1.25.0
<netconvertConfiguration xmlns:xsi="http://www.w3.org/2001/XMLSchema-instance" xsi:noNamespaceSchemaLocation="http://sumo.dlr.de/xsd/netconvertConfiguration.xsd">

    <input>
        <node-files value="sumo_files_multiagent/multiagent.nod.xml"/>
        <edge-files value="sumo_files_multiagent/multiagent.edg.xml"/>
    </input>

    <output>
        <output-file value="sumo_files_multiagent/multiagent.net.xml"/>
    </output>

    <junctions>
        <no-turnarounds value="true"/>
    </junctions>

</netconvertConfiguration>
-->

<net version="1.20" junctionCornerDetail="5" limitTurnSpeed="5.50" xmlns:xsi="http://www.w3.org/2001/XMLSchema-instance" xsi:noNamespaceSchemaLocation="http://sumo.dlr.de/xsd/net_file.xsd">

    <location netOffset="750.00,750.00" convBoundary="0.00,0.00,1500.00,1500.00" origBoundary="-750.00,-750.00,750.00,750.00" projParameter="!"/>

    <edge id=":intersection_1_0" function="internal">
        <lane id=":intersection_1_0_0" index="0" speed="6.51" length="9.03" shape="495.20,1010.40 494.85,1007.95 493.80,1006.20 492.05,1005.15 489.60,1004.80"/>
    </edge>
    <edge id=":intersection_1_1" function="internal">
        <lane id=":intersection_1_1_0" index="0" speed="13.89" length="20.80" shape="495.20,1010.40 495.20,989.60"/>
        <lane id=":intersection_1_1_1" index="1" speed="13.89" length="20.80" shape="498.40,1010.40 498.40,989.60"/>
    </edge>
    <edge id=":intersection_1_3" function="internal">
        <lane id=":intersection_1_3_0" index="0" speed="9.26" length="5.01" shape="498.40,1010.40 499.11,1005.44"/>
    </edge>
    <edge id=":intersection_1_16" function="internal">
        <lane id=":intersection_1_16_0" index="0" speed="9.26" length="14.34" shape="499.11,1005.44 499.15,1005.15 501.40,1001.40 505.15,999.15 510.40,998.40"/>
    </edge>
    <edge id=":intersection_1_4" function="internal">
        <lane id=":intersection_1_4_0" index="0" speed="6.51" length="9.03" shape="510.40,1004.80 507.95,1005.15 506.20,1006.20 505.15,1007.95 504.80,1010.40"/>
    </edge>
    <edge id=":intersection_1_5" function="internal">
        <lane id=":intersection_1_5_0" index="0" speed="13.89" length="20.80" shape="510.40,1004.80 489.60,1004.80"/>
        <lane id=":intersection_1_5_1" index="1" speed="13.89" length="20.80" shape="510.40,1001.60 489.60,1001.60"/>
    </edge>
    <edge id=":intersection_1_7" function="internal">
        <lane id=":intersection_1_7_0" index="0" speed="9.26" length="5.01" shape="510.40,1001.60 505.44,1000.89"/>
    </edge>
    <edge id=":intersection_1_17" function="internal">
        <lane id=":intersection_1_17_0" index="0" speed="9.26" length="14.34" shape="505.44,1000.89 505.15,1000.85 501.40,998.60 499.15,994.85 498.40,989.60"/>
    </edge>
    <edge id=":intersection_1_8" function="internal">
        <lane id=":intersection_1_8_0" index="0" speed="6.51" length="9.03" shape="504.80,989.60 505.15,992.05 506.20,993.80 507.95,994.85 510.40,995.20"/>
    </edge>
    <edge id=":intersection_1_9" function="internal">
        <lane id=":intersection_1_9_0" index="0" speed="13.89" length="20.80" shape="504.80,989.60 504.80,1010.40"/>
        <lane id=":intersection_1_9_1" index="1" speed="13.89" length="20.80" shape="501.60,989.60 501.60,1010.40"/>
    </edge>
    <edge id=":intersection_1_11" function="internal">
        <lane id=":intersection_1_11_0" index="0" speed="9.26" length="5.01" shape="501.60,989.60 500.89,994.56"/>
    </edge>
    <edge id=":intersection_1_18" function="internal">
        <lane id=":intersection_1_18_0" index="0" speed="9.26" length="14.34" shape="500.89,994.56 500.85,994.85 498.60,998.60 494.85,1000.85 489.60,1001.60"/>
    </edge>
    <edge id=":intersection_1_12" function="internal">
        <lane id=":intersection_1_12_0" index="0" speed="6.51" length="9.03" shape="489.60,995.20 492.05,994.85 493.80,993.80 494.85,992.05 495.20,989.60"/>
    </edge>
    <edge id=":intersection_1_13" function="internal">
        <lane id=":intersection_1_13_0" index="0" speed="13.89" length="20.80" shape="489.60,995.20 510.40,995.20"/>
        <lane id=":intersection_1_13_1" index="1" speed="13.89" length="20.80" shape="489.60,998.40 510.40,998.40"/>
    </edge>
    <edge id=":intersection_1_15" function="internal">
        <lane id=":intersection_1_15_0" index="0" speed="9.26" length="5.01" shape="489.60,998.40 494.56,999.11"/>
    </edge>
    <edge id=":intersection_1_19" function="internal">
        <lane id=":intersection_1_19_0" index="0" speed="9.26" length="14.34" shape="494.56,999.11 494.85,999.15 498.60,1001.40 500.85,1005.15 501.60,1010.40"/>
    </edge>
    <edge id=":intersection_2_0" function="internal">
        <lane id=":intersection_2_0_0" index="0" speed="6.51" length="9.03" shape="995.20,1010.40 994.85,1007.95 993.80,1006.20 992.05,1005.15 989.60,1004.80"/>
    </edge>
    <edge id=":intersection_2_1" function="internal">
        <lane id=":intersection_2_1_0" index="0" speed="13.89" length="20.80" shape="995.20,1010.40 995.20,989.60"/>
        <lane id=":intersection_2_1_1" index="1" speed="13.89" length="20.80" shape="998.40,1010.40 998.40,989.60"/>
    </edge>
    <edge id=":intersection_2_3" function="internal">
        <lane id=":intersection_2_3_0" index="0" speed="9.26" length="5.01" shape="998.40,1010.40 999.11,1005.44"/>
    </edge>
    <edge id=":intersection_2_16" function="internal">
        <lane id=":intersection_2_16_0" index="0" speed="9.26" length="14.34" shape="999.11,1005.44 999.15,1005.15 1001.40,1001.40 1005.15,999.15 1010.40,998.40"/>
    </edge>
    <edge id=":intersection_2_4" function="internal">
        <lane id=":intersection_2_4_0" index="0" speed="6.51" length="9.03" shape="1010.40,1004.80 1007.95,1005.15 1006.20,1006.20 1005.15,1007.95 1004.80,1010.40"/>
    </edge>
    <edge id=":intersection_2_5" function="internal">
        <lane id=":intersection_2_5_0" index="0" speed="13.89" length="20.80" shape="1010.40,1004.80 989.60,1004.80"/>
        <lane id=":intersection_2_5_1" index="1" speed="13.89" length="20.80" shape="1010.40,1001.60 989.60,1001.60"/>
    </edge>
    <edge id=":intersection_2_7" function="internal">
        <lane id=":intersection_2_7_0" index="0" speed="9.26" length="5.01" shape="1010.40,1001.60 1005.44,1000.89"/>
    </edge>
    <edge id=":intersection_2_17" function="internal">
        <lane id=":intersection_2_17_0" index="0" speed="9.26" length="14.34" shape="1005.44,1000.89 1005.15,1000.85 1001.40,998.60 999.15,994.85 998.40,989.60"/>
    </edge>
    <edge id=":intersection_2_8" function="internal">
        <lane id=":intersection_2_8_0" index="0" speed="6.51" length="9.03" shape="1004.80,989.60 1005.15,992.05 1006.20,993.80 1007.95,994.85 1010.40,995.20"/>
    </edge>
    <edge id=":intersection_2_9" function="internal">
        <lane id=":intersection_2_9_0" index="0" speed="13.89" length="20.80" shape="1004.80,989.60 1004.80,1010.40"/>
        <lane id=":intersection_2_9_1" index="1" speed="13.89" length="20.80" shape="1001.60,989.60 1001.60,1010.40"/>
    </edge>
    <edge id=":intersection_2_11" function="internal">
        <lane id=":intersection_2_11_0" index="0" speed="9.26" length="5.01" shape="1001.60,989.60 1000.89,994.56"/>
    </edge>
    <edge id=":intersection_2_18" function="internal">
        <lane id=":intersection_2_18_0" index="0" speed="9.26" length="14.34" shape="1000.89,994.56 1000.85,994.85 998.60,998.60 994.85,1000.85 989.60,1001.60"/>
    </edge>
    <edge id=":intersection_2_12" function="internal">
        <lane id=":intersection_2_12_0" index="0" speed="6.51" length="9.03" shape="989.60,995.20 992.05,994.85 993.80,993.80 994.85,992.05 995.20,989.60"/>
    </edge>
    <edge id=":intersection_2_13" function="internal">
        <lane id=":intersection_2_13_0" index="0" speed="13.89" length="20.80" shape="989.60,995.20 1010.40,995.20"/>
        <lane id=":intersection_2_13_1" index="1" speed="13.89" length="20.80" shape="989.60,998.40 1010.40,998.40"/>
    </edge>
    <edge id=":intersection_2_15" function="internal">
        <lane id=":intersection_2_15_0" index="0" speed="9.26" length="5.01" shape="989.60,998.40 994.56,999.11"/>
    </edge>
    <edge id=":intersection_2_19" function="internal">
        <lane id=":intersection_2_19_0" index="0" speed="9.26" length="14.34" shape="994.56,999.11 994.85,999.15 998.60,1001.40 1000.85,1005.15 1001.60,1010.40"/>
    </edge>
    <edge id=":intersection_3_0" function="internal">
        <lane id=":intersection_3_0_0" index="0" speed="6.51" length="9.03" shape="495.20,510.40 494.85,507.95 493.80,506.20 492.05,505.15 489.60,504.80"/>
    </edge>
    <edge id=":intersection_3_1" function="internal">
        <lane id=":intersection_3_1_0" index="0" speed="13.89" length="20.80" shape="495.20,510.40 495.20,489.60"/>
        <lane id=":intersection_3_1_1" index="1" speed="13.89" length="20.80" shape="498.40,510.40 498.40,489.60"/>
    </edge>
    <edge id=":intersection_3_3" function="internal">
        <lane id=":intersection_3_3_0" index="0" speed="9.26" length="5.01" shape="498.40,510.40 499.11,505.44"/>
    </edge>
    <edge id=":intersection_3_16" function="internal">
        <lane id=":intersection_3_16_0" index="0" speed="9.26" length="14.34" shape="499.11,505.44 499.15,505.15 501.40,501.40 505.15,499.15 510.40,498.40"/>
    </edge>
    <edge id=":intersection_3_4" function="internal">
        <lane id=":intersection_3_4_0" index="0" speed="6.51" length="9.03" shape="510.40,504.80 507.95,505.15 506.20,506.20 505.15,507.95 504.80,510.40"/>
    </edge>
    <edge id=":intersection_3_5" function="internal">
        <lane id=":intersection_3_5_0" index="0" speed="13.89" length="20.80" shape="510.40,504.80 489.60,504.80"/>
        <lane id=":intersection_3_5_1" index="1" speed="13.89" length="20.80" shape="510.40,501.60 489.60,501.60"/>
    </edge>
    <edge id=":intersection_3_7" function="internal">
        <lane id=":intersection_3_7_0" index="0" speed="9.26" length="5.01" shape="510.40,501.60 505.44,500.89"/>
    </edge>
    <edge id=":intersection_3_17" function="internal">
        <lane id=":intersection_3_17_0" index="0" speed="9.26" length="14.34" shape="505.44,500.89 505.15,500.85 501.40,498.60 499.15,494.85 498.40,489.60"/>
    </edge>
    <edge id=":intersection_3_8" function="internal">
        <lane id=":intersection_3_8_0" index="0" speed="6.51" length="9.03" shape="504.80,489.60 505.15,492.05 506.20,493.80 507.95,494.85 510.40,495.20"/>
    </edge>
    <edge id=":intersection_3_9" function="internal">
        <lane id=":intersection_3_9_0" index="0" speed="13.89" length="20.80" shape="504.80,489.60 504.80,510.40"/>
        <lane id=":intersection_3_9_1" index="1" speed="13.89" length="20.80" shape="501.60,489.60 501.60,510.40"/>
    </edge>
    <edge id=":intersection_3_11" function="internal">
        <lane id=":intersection_3_11_0" index="0" speed="9.26" length="5.01" shape="501.60,489.60 500.89,494.56"/>
    </edge>
    <edge id=":intersection_3_18" function="internal">
        <lane id=":intersection_3_18_0" index="0" speed="9.26" length="14.34" shape="500.89,494.56 500.85,494.85 498.60,498.60 494.85,500.85 489.60,501.60"/>
    </edge>
    <edge id=":intersection_3_12" function="internal">
        <lane id=":intersection_3_12_0" index="0" speed="6.51" length="9.03" shape="489.60,495.20 492.05,494.85 493.80,493.80 494.85,492.05 495.20,489.60"/>
    </edge>
    <edge id=":intersection_3_13" function="internal">
        <lane id=":intersection_3_13_0" index="0" speed="13.89" length="20.80" shape="489.60,495.20 510.40,495.20"/>
        <lane id=":intersection_3_13_1" index="1" speed="13.89" length="20.80" shape="489.60,498.40 510.40,498.40"/>
    </edge>
    <edge id=":intersection_3_15" function="internal">
        <lane id=":intersection_3_15_0" index="0" speed="9.26" length="5.01" shape="489.60,498.40 494.56,499.11"/>
    </edge>
    <edge id=":intersection_3_19" function="internal">
        <lane id=":intersection_3_19_0" index="0" speed="9.26" length="14.34" shape="494.56,499.11 494.85,499.15 498.60,501.40 500.85,505.15 501.60,510.40"/>
    </edge>
    <edge id=":intersection_4_0" function="internal">
        <lane id=":intersection_4_0_0" index="0" speed="6.51" length="9.03" shape="995.20,510.40 994.85,507.95 993.80,506.20 992.05,505.15 989.60,504.80"/>
    </edge>
    <edge id=":intersection_4_1" function="internal">
        <lane id=":intersection_4_1_0" index="0" speed="13.89" length="20.80" shape="995.20,510.40 995.20,489.60"/>
        <lane id=":intersection_4_1_1" index="1" speed="13.89" length="20.80" shape="998.40,510.40 998.40,489.60"/>
    </edge>
    <edge id=":intersection_4_3" function="internal">
        <lane id=":intersection_4_3_0" index="0" speed="9.26" length="5.01" shape="998.40,510.40 999.11,505.44"/>
    </edge>
    <edge id=":intersection_4_16" function="internal">
        <lane id=":intersection_4_16_0" index="0" speed="9.26" length="14.34" shape="999.11,505.44 999.15,505.15 1001.40,501.40 1005.15,499.15 1010.40,498.40"/>
    </edge>
    <edge id=":intersection_4_4" function="internal">
        <lane id=":intersection_4_4_0" index="0" speed="6.51" length="9.03" shape="1010.40,504.80 1007.95,505.15 1006.20,506.20 1005.15,507.95 1004.80,510.40"/>
    </edge>
    <edge id=":intersection_4_5" function="internal">
        <lane id=":intersection_4_5_0" index="0" speed="13.89" length="20.80" shape="1010.40,504.80 989.60,504.80"/>
        <lane id=":intersection_4_5_1" index="1" speed="13.89" length="20.80" shape="1010.40,501.60 989.60,501.60"/>
    </edge>
    <edge id=":intersection_4_7" function="internal">
        <lane id=":intersection_4_7_0" index="0" speed="9.26" length="5.01" shape="1010.40,501.60 1005.44,500.89"/>
    </edge>
    <edge id=":intersection_4_17" function="internal">
        <lane id=":intersection_4_17_0" index="0" speed="9.26" length="14.34" shape="1005.44,500.89 1005.15,500.85 1001.40,498.60 999.15,494.85 998.40,489.60"/>
    </edge>
    <edge id=":intersection_4_8" function="internal">
        <lane id=":intersection_4_8_0" index="0" speed="6.51" length="9.03" shape="1004.80,489.60 1005.15,492.05 1006.20,493.80 1007.95,494.85 1010.40,495.20"/>
    </edge>
    <edge id=":intersection_4_9" function="internal">
        <lane id=":intersection_4_9_0" index="0" speed="13.89" length="20.80" shape="1004.80,489.60 1004.80,510.40"/>
        <lane id=":intersection_4_9_1" index="1" speed="13.89" length="20.80" shape="1001.60,489.60 1001.60,510.40"/>
    </edge>
    <edge id=":intersection_4_11" function="internal">
        <lane id=":intersection_4_11_0" index="0" speed="9.26" length="5.01" shape="1001.60,489.60 1000.89,494.56"/>
    </edge>
    <edge id=":intersection_4_18" function="internal">
        <lane id=":intersection_4_18_0" index="0" speed="9.26" length="14.34" shape="1000.89,494.56 1000.85,494.85 998.60,498.60 994.85,500.85 989.60,501.60"/>
    </edge>
    <edge id=":intersection_4_12" function="internal">
        <lane id=":intersection_4_12_0" index="0" speed="6.51" length="9.03" shape="989.60,495.20 992.05,494.85 993.80,493.80 994.85,492.05 995.20,489.60"/>
    </edge>
    <edge id=":intersection_4_13" function="internal">
        <lane id=":intersection_4_13_0" index="0" speed="13.89" length="20.80" shape="989.60,495.20 1010.40,495.20"/>
        <lane id=":intersection_4_13_1" index="1" speed="13.89" length="20.80" shape="989.60,498.40 1010.40,498.40"/>
    </edge>
    <edge id=":intersection_4_15" function="internal">
        <lane id=":intersection_4_15_0" index="0" speed="9.26" length="5.01" shape="989.60,498.40 994.56,499.11"/>
    </edge>
    <edge id=":intersection_4_19" function="internal">
        <lane id=":intersection_4_19_0" index="0" speed="9.26" length="14.34" shape="994.56,499.11 994.85,499.15 998.60,501.40 1000.85,505.15 1001.60,510.40"/>
    </edge>

    <edge id="east_to_i2" from="east_ext_1" to="intersection_2" priority="-1">
        <lane id="east_to_i2_0" index="0" speed="13.89" length="489.60" shape="1500.00,1004.80 1010.40,1004.80"/>
        <lane id="east_to_i2_1" index="1" speed="13.89" length="489.60" shape="1500.00,1001.60 1010.40,1001.60"/>
    </edge>
    <edge id="east_to_i4" from="east_ext_2" to="intersection_4" priority="-1">
        <lane id="east_to_i4_0" index="0" speed="13.89" length="489.60" shape="1500.00,504.80 1010.40,504.80"/>
        <lane id="east_to_i4_1" index="1" speed="13.89" length="489.60" shape="1500.00,501.60 1010.40,501.60"/>
    </edge>
    <edge id="i1_to_i2" from="intersection_1" to="intersection_2" priority="-1">
        <lane id="i1_to_i2_0" index="0" speed="13.89" length="479.20" shape="510.40,995.20 989.60,995.20"/>
        <lane id="i1_to_i2_1" index="1" speed="13.89" length="479.20" shape="510.40,998.40 989.60,998.40"/>
    </edge>
    <edge id="i1_to_i3" from="intersection_1" to="intersection_3" priority="-1">
        <lane id="i1_to_i3_0" index="0" speed="13.89" length="479.20" shape="495.20,989.60 495.20,510.40"/>
        <lane id="i1_to_i3_1" index="1" speed="13.89" length="479.20" shape="498.40,989.60 498.40,510.40"/>
    </edge>
    <edge id="i1_to_north" from="intersection_1" to="north_ext_1" priority="-1">
        <lane id="i1_to_north_0" index="0" speed="13.89" length="489.60" shape="504.80,1010.40 504.80,1500.00"/>
        <lane id="i1_to_north_1" index="1" speed="13.89" length="489.60" shape="501.60,1010.40 501.60,1500.00"/>
    </edge>
    <edge id="i1_to_west" from="intersection_1" to="west_ext_1" priority="-1">
        <lane id="i1_to_west_0" index="0" speed="13.89" length="489.60" shape="489.60,1004.80 0.00,1004.80"/>
        <lane id="i1_to_west_1" index="1" speed="13.89" length="489.60" shape="489.60,1001.60 0.00,1001.60"/>
    </edge>
    <edge id="i2_to_east" from="intersection_2" to="east_ext_1" priority="-1">
        <lane id="i2_to_east_0" index="0" speed="13.89" length="489.60" shape="1010.40,995.20 1500.00,995.20"/>
        <lane id="i2_to_east_1" index="1" speed="13.89" length="489.60" shape="1010.40,998.40 1500.00,998.40"/>
    </edge>
    <edge id="i2_to_i1" from="intersection_2" to="intersection_1" priority="-1">
        <lane id="i2_to_i1_0" index="0" speed="13.89" length="479.20" shape="989.60,1004.80 510.40,1004.80"/>
        <lane id="i2_to_i1_1" index="1" speed="13.89" length="479.20" shape="989.60,1001.60 510.40,1001.60"/>
    </edge>
    <edge id="i2_to_i4" from="intersection_2" to="intersection_4" priority="-1">
        <lane id="i2_to_i4_0" index="0" speed="13.89" length="479.20" shape="995.20,989.60 995.20,510.40"/>
        <lane id="i2_to_i4_1" index="1" speed="13.89" length="479.20" shape="998.40,989.60 998.40,510.40"/>
    </edge>
    <edge id="i2_to_north" from="intersection_2" to="north_ext_2" priority="-1">
        <lane id="i2_to_north_0" index="0" speed="13.89" length="489.60" shape="1004.80,1010.40 1004.80,1500.00"/>
        <lane id="i2_to_north_1" index="1" speed="13.89" length="489.60" shape="1001.60,1010.40 1001.60,1500.00"/>
    </edge>
    <edge id="i3_to_i1" from="intersection_3" to="intersection_1" priority="-1">
        <lane id="i3_to_i1_0" index="0" speed="13.89" length="479.20" shape="504.80,510.40 504.80,989.60"/>
        <lane id="i3_to_i1_1" index="1" speed="13.89" length="479.20" shape="501.60,510.40 501.60,989.60"/>
    </edge>
    <edge id="i3_to_i4" from="intersection_3" to="intersection_4" priority="-1">
        <lane id="i3_to_i4_0" index="0" speed="13.89" length="479.20" shape="510.40,495.20 989.60,495.20"/>
        <lane id="i3_to_i4_1" index="1" speed="13.89" length="479.20" shape="510.40,498.40 989.60,498.40"/>
    </edge>
    <edge id="i3_to_south" from="intersection_3" to="south_ext_1" priority="-1">
        <lane id="i3_to_south_0" index="0" speed="13.89" length="489.60" shape="495.20,489.60 495.20,0.00"/>
        <lane id="i3_to_south_1" index="1" speed="13.89" length="489.60" shape="498.40,489.60 498.40,0.00"/>
    </edge>
    <edge id="i3_to_west" from="intersection_3" to="west_ext_2" priority="-1">
        <lane id="i3_to_west_0" index="0" speed="13.89" length="489.60" shape="489.60,504.80 0.00,504.80"/>
        <lane id="i3_to_west_1" index="1" speed="13.89" length="489.60" shape="489.60,501.60 0.00,501.60"/>
    </edge>
    <edge id="i4_to_east" from="intersection_4" to="east_ext_2" priority="-1">
        <lane id="i4_to_east_0" index="0" speed="13.89" length="489.60" shape="1010.40,495.20 1500.00,495.20"/>
        <lane id="i4_to_east_1" index="1" speed="13.89" length="489.60" shape="1010.40,498.40 1500.00,498.40"/>
    </edge>
    <edge id="i4_to_i2" from="intersection_4" to="intersection_2" priority="-1">
        <lane id="i4_to_i2_0" index="0" speed="13.89" length="479.20" shape="1004.80,510.40 1004.80,989.60"/>
        <lane id="i4_to_i2_1" index="1" speed="13.89" length="479.20" shape="1001.60,510.40 1001.60,989.60"/>
    </edge>
    <edge id="i4_to_i3" from="intersection_4" to="intersection_3" priority="-1">
        <lane id="i4_to_i3_0" index="0" speed="13.89" length="479.20" shape="989.60,504.80 510.40,504.80"/>
        <lane id="i4_to_i3_1" index="1" speed="13.89" length="479.20" shape="989.60,501.60 510.40,501.60"/>
    </edge>
    <edge id="i4_to_south" from="intersection_4" to="south_ext_2" priority="-1">
        <lane id="i4_to_south_0" index="0" speed="13.89" length="489.60" shape="995.20,489.60 995.20,0.00"/>
        <lane id="i4_to_south_1" index="1" speed="13.89" length="489.60" shape="998.40,489.60 998.40,0.00"/>
    </edge>
    <edge id="north_to_i1" from="north_ext_1" to="intersection_1" priority="-1">
        <lane id="north_to_i1_0" index="0" speed="13.89" length="489.60" shape="495.20,1500.00 495.20,1010.40"/>
        <lane id="north_to_i1_1" index="1" speed="13.89" length="489.60" shape="498.40,1500.00 498.40,1010.40"/>
    </edge>
    <edge id="north_to_i2" from="north_ext_2" to="intersection_2" priority="-1">
        <lane id="north_to_i2_0" index="0" speed="13.89" length="489.60" shape="995.20,1500.00 995.20,1010.40"/>
        <lane id="north_to_i2_1" index="1" speed="13.89" length="489.60" shape="998.40,1500.00 998.40,1010.40"/>
    </edge>
    <edge id="south_to_i3" from="south_ext_1" to="intersection_3" priority="-1">
        <lane id="south_to_i3_0" index="0" speed="13.89" length="489.60" shape="504.80,0.00 504.80,489.60"/>
        <lane id="south_to_i3_1" index="1" speed="13.89" length="489.60" shape="501.60,0.00 501.60,489.60"/>
    </edge>
    <edge id="south_to_i4" from="south_ext_2" to="intersection_4" priority="-1">
        <lane id="south_to_i4_0" index="0" speed="13.89" length="489.60" shape="1004.80,0.00 1004.80,489.60"/>
        <lane id="south_to_i4_1" index="1" speed="13.89" length="489.60" shape="1001.60,0.00 1001.60,489.60"/>
    </edge>
    <edge id="west_to_i1" from="west_ext_1" to="intersection_1" priority="-1">
        <lane id="west_to_i1_0" index="0" speed="13.89" length="489.60" shape="0.00,995.20 489.60,995.20"/>
        <lane id="west_to_i1_1" index="1" speed="13.89" length="489.60" shape="0.00,998.40 489.60,998.40"/>
    </edge>
    <edge id="west_to_i3" from="west_ext_2" to="intersection_3" priority="-1">
        <lane id="west_to_i3_0" index="0" speed="13.89" length="489.60" shape="0.00,495.20 489.60,495.20"/>
        <lane id="west_to_i3_1" index="1" speed="13.89" length="489.60" shape="0.00,498.40 489.60,498.40"/>
    </edge>

    <tlLogic id="tls_1" type="static" programID="0" offset="0">
        <phase duration="42" state="GGGgrrrrGGGgrrrr"/>
        <phase duration="3"  state="yyyyrrrryyyyrrrr"/>
        <phase duration="42" state="rrrrGGGgrrrrGGGg"/>
        <phase duration="3"  state="rrrryyyyrrrryyyy"/>
    </tlLogic>
    <tlLogic id="tls_2" type="static" programID="0" offset="0">
        <phase duration="42" state="GGGgrrrrGGGgrrrr"/>
        <phase duration="3"  state="yyyyrrrryyyyrrrr"/>
        <phase duration="42" state="rrrrGGGgrrrrGGGg"/>
        <phase duration="3"  state="rrrryyyyrrrryyyy"/>
    </tlLogic>
    <tlLogic id="tls_3" type="static" programID="0" offset="0">
        <phase duration="42" state="GGGgrrrrGGGgrrrr"/>
        <phase duration="3"  state="yyyyrrrryyyyrrrr"/>
        <phase duration="42" state="rrrrGGGgrrrrGGGg"/>
        <phase duration="3"  state="rrrryyyyrrrryyyy"/>
    </tlLogic>
    <tlLogic id="tls_4" type="static" programID="0" offset="0">
        <phase duration="42" state="GGGgrrrrGGGgrrrr"/>
        <phase duration="3"  state="yyyyrrrryyyyrrrr"/>
        <phase duration="42" state="rrrrGGGgrrrrGGGg"/>
        <phase duration="3"  state="rrrryyyyrrrryyyy"/>
    </tlLogic>

    <junction id="east_ext_1" type="dead_end" x="1500.00" y="1000.00" incLanes="i2_to_east_0 i2_to_east_1" intLanes="" shape="1500.00,1000.00 1500.00,993.60 1500.00,1000.00"/>
    <junction id="east_ext_2" type="dead_end" x="1500.00" y="500.00" incLanes="i4_to_east_0 i4_to_east_1" intLanes="" shape="1500.00,500.00 1500.00,493.60 1500.00,500.00"/>
    <junction id="intersection_1" type="traffic_light" x="500.00" y="1000.00" incLanes="north_to_i1_0 north_to_i1_1 i2_to_i1_0 i2_to_i1_1 i3_to_i1_0 i3_to_i1_1 west_to_i1_0 west_to_i1_1" intLanes=":intersection_1_0_0 :intersection_1_1_0 :intersection_1_1_1 :intersection_1_16_0 :intersection_1_4_0 :intersection_1_5_0 :intersection_1_5_1 :intersection_1_17_0 :intersection_1_8_0 :intersection_1_9_0 :intersection_1_9_1 :intersection_1_18_0 :intersection_1_12_0 :intersection_1_13_0 :intersection_1_13_1 :intersection_1_19_0" shape="493.60,1010.40 506.40,1010.40 506.84,1008.18 507.40,1007.40 508.18,1006.84 509.18,1006.51 510.40,1006.40 510.40,993.60 508.18,993.16 507.40,992.60 506.84,991.82 506.51,990.82 506.40,989.60 493.60,989.60 493.16,991.82 492.60,992.60 491.82,993.16 490.82,993.49 489.60,993.60 489.60,1006.40 491.82,1006.84 492.60,1007.40 493.16,1008.18 493.49,1009.18">
        <request index="0"  response="0000000000000000" foes="0000000001100000" cont="0"/>
        <request index="1"  response="1000000000000000" foes="1111100011100000" cont="0"/>
        <request index="2"  response="1000000010000000" foes="1111100011100000" cont="0"/>
        <request index="3"  response="1000011010000000" foes="1110011011100000" cont="1"/>
        <request index="4"  response="0000011000000000" foes="0000011000000000" cont="0"/>
        <request index="5"  response="0000111000001111" foes="1000111000001111" cont="0"/>
        <request index="6"  response="0000111000001111" foes="1000111000001111" cont="0"/>
        <request index="7"  response="0110111000001110" foes="0110111000001110" cont="1"/>
        <request index="8"  response="0000000000000000" foes="0110000000000000" cont="0"/>
        <request index="9"  response="0000000010000000" foes="1110000011111000" cont="0"/>
        <request index="10" response="1000000010000000" foes="1110000011111000" cont="0"/>
        <request index="11" response="1000000010000110" foes="1110000011100110" cont="1"/>
        <request index="12" response="0000000000000110" foes="0000000000000110" cont="0"/>
        <request index="13" response="0000111100001110" foes="0000111110001110" cont="0"/>
        <request index="14" response="0000111100001110" foes="0000111110001110" cont="0"/>
        <request index="15" response="0000111001101110" foes="0000111001101110" cont="1"/>
    </junction>
    <junction id="intersection_2" type="traffic_light" x="1000.00" y="1000.00" incLanes="north_to_i2_0 north_to_i2_1 east_to_i2_0 east_to_i2_1 i4_to_i2_0 i4_to_i2_1 i1_to_i2_0 i1_to_i2_1" intLanes=":intersection_2_0_0 :intersection_2_1_0 :intersection_2_1_1 :intersection_2_16_0 :intersection_2_4_0 :intersection_2_5_0 :intersection_2_5_1 :intersection_2_17_0 :intersection_2_8_0 :intersection_2_9_0 :intersection_2_9_1 :intersection_2_18_0 :intersection_2_12_0 :intersection_2_13_0 :intersection_2_13_1 :intersection_2_19_0" shape="993.60,1010.40 1006.40,1010.40 1006.84,1008.18 1007.40,1007.40 1008.18,1006.84 1009.18,1006.51 1010.40,1006.40 1010.40,993.60 1008.18,993.16 1007.40,992.60 1006.84,991.82 1006.51,990.82 1006.40,989.60 993.60,989.60 993.16,991.82 992.60,992.60 991.82,993.16 990.82,993.49 989.60,993.60 989.60,1006.40 991.82,1006.84 992.60,1007.40 993.16,1008.18 993.49,1009.18">
        <request index="0"  response="0000000000000000" foes="0000000001100000" cont="0"/>
        <request index="1"  response="1000000000000000" foes="1111100011100000" cont="0"/>
        <request index="2"  response="1000000010000000" foes="1111100011100000" cont="0"/>
        <request index="3"  response="1000011010000000" foes="1110011011100000" cont="1"/>
        <request index="4"  response="0000011000000000" foes="0000011000000000" cont="0"/>
        <request index="5"  response="0000111000001111" foes="1000111000001111" cont="0"/>
        <request index="6"  response="0000111000001111" foes="1000111000001111" cont="0"/>
        <request index="7"  response="0110111000001110" foes="0110111000001110" cont="1"/>
        <request index="8"  response="0000000000000000" foes="0110000000000000" cont="0"/>
        <request index="9"  response="0000000010000000" foes="1110000011111000" cont="0"/>
        <request index="10" response="1000000010000000" foes="1110000011111000" cont="0"/>
        <request index="11" response="1000000010000110" foes="1110000011100110" cont="1"/>
        <request index="12" response="0000000000000110" foes="0000000000000110" cont="0"/>
        <request index="13" response="0000111100001110" foes="0000111110001110" cont="0"/>
        <request index="14" response="0000111100001110" foes="0000111110001110" cont="0"/>
        <request index="15" response="0000111001101110" foes="0000111001101110" cont="1"/>
    </junction>