<?xml version="1.0" encoding="UTF-8"?>
<nodes xmlns:xsi="http://www.w3.org/2001/XMLSchema-instance"
       xsi:noNamespaceSchemaLocation="http://sumo.dlr.de/xsd/nodes_file.xsd">

    <!-- ============ External Boundary Nodes (traffic sources/sinks) ============ -->
    <!-- North boundary (4 entry points, one per column) -->
    <node id="north_ext_1" x="-750" y="750" type="priority"/>
    <node id="north_ext_2" x="-250" y="750" type="priority"/>
    <node id="north_ext_3" x="250"  y="750" type="priority"/>
    <node id="north_ext_4" x="750"  y="750" type="priority"/>

    <!-- South boundary -->
    <node id="south_ext_1" x="-750" y="-750" type="priority"/>
    <node id="south_ext_2" x="-250" y="-750" type="priority"/>
    <node id="south_ext_3" x="250"  y="-750" type="priority"/>
    <node id="south_ext_4" x="750"  y="-750" type="priority"/>

    <!-- West boundary (2 entry points, one per row) -->
    <node id="west_ext_1" x="-1250" y="250"  type="priority"/>
    <node id="west_ext_2" x="-1250" y="-250" type="priority"/>

    <!-- East boundary -->
    <node id="east_ext_1" x="1250" y="250"  type="priority"/>
    <node id="east_ext_2" x="1250" y="-250" type="priority"/>

    <!-- ============ Intersection Nodes (traffic light controlled) ============ -->
    <!-- Zone A (left 2x2 grid) -->
    <node id="intersection_1" x="-750" y="250"  type="traffic_light" tl="tls_1"/>
    <node id="intersection_2" x="-250" y="250"  type="traffic_light" tl="tls_2"/>
    <node id="intersection_3" x="-750" y="-250" type="traffic_light" tl="tls_3"/>
    <node id="intersection_4" x="-250" y="-250" type="traffic_light" tl="tls_4"/>

    <!-- Zone B (right 2x2 grid) -->
    <node id="intersection_5" x="250"  y="250"  type="traffic_light" tl="tls_5"/>
    <node id="intersection_6" x="750"  y="250"  type="traffic_light" tl="tls_6"/>
    <node id="intersection_7" x="250"  y="-250" type="traffic_light" tl="tls_7"/>
    <node id="intersection_8" x="750"  y="-250" type="traffic_light" tl="tls_8"/>

</nodes>
