<?xml version="1.0" encoding="UTF-8"?>
<additional xmlns:xsi="http://www.w3.org/2001/XMLSchema-instance"
            xsi:noNamespaceSchemaLocation="http://sumo.dlr.de/xsd/additional_file.xsd">

    <tlLogic id="tls_1" type="static" programID="0" offset="0">
        <phase duration="60" state="GGrrGGrr"/>  <!-- NS green -->
        <phase duration="60" state="rrGGrrGG"/>  <!-- EW green -->
    </tlLogic>
    <tlLogic id="tls_2" type="static" programID="0" offset="0">
        <phase duration="60" state="GGrrGGrr"/>  <!-- NS green -->
        <phase duration="60" state="rrGGrrGG"/>  <!-- EW green -->
    </tlLogic>
    <tlLogic id="tls_3" type="static" programID="0" offset="0">
        <phase duration="60" state="GGrrGGrr"/>  <!-- NS green -->
        <phase duration="60" state="rrGGrrGG"/>  <!-- EW green -->
    </tlLogic>
    <tlLogic id="tls_4" type="static" programID="0" offset="0">
        <phase duration="60" state="GGrrGGrr"/>  <!-- NS green -->
        <phase duration="60" state="rrGGrrGG"/>  <!-- EW green -->
    </tlLogic>
    <tlLogic id="tls_5" type="static" programID="0" offset="0">
        <phase duration="60" state="GGrrGGrr"/>  <!-- NS green -->
        <phase duration="60" state="rrGGrrGG"/>  <!-- EW green -->
    </tlLogic>
    <tlLogic id="tls_6" type="static" programID="0" offset="0">
        <phase duration="60" state="GGrrGGrr"/>  <!-- NS green -->
        <phase duration="60" state="rrGGrrGG"/>  <!-- EW green -->
    </tlLogic>
    <tlLogic id="tls_7" type="static" programID="0" offset="0">
        <phase duration="60" state="GGrrGGrr"/>  <!-- NS green -->
        <phase duration="60" state="rrGGrrGG"/>  <!-- EW green -->
    </tlLogic>
    <tlLogic id="tls_8" type="static" programID="0" offset="0">
        <phase duration="60" state="GGrrGGrr"/>  <!-- NS green -->
        <phase duration="60" state="rrGGrrGG"/>  <!-- EW green -->
    </tlLogic>

</additional>
