<?xml version="1.0" encoding="UTF-8"?>

<!-- generated on 2026-03-03T12:51:51.198190+05:30 by Eclipse SUMO netconvert 1.25.0
<netconvertConfiguration xmlns:xsi="http://www.w3.org/2001/XMLSchema-instance" xsi:noNamespaceSchemaLocation="http://sumo.dlr.de/xsd/netconvertConfiguration.xsd">

    <input>
        <node-files value="sumo_config/federated/federated.nod.xml"/>
        <edge-files value="sumo_config/federated/federated.edg.xml"/>
    </input>

    <output>
        <output-file value="sumo_config/federated/federated.net.xml"/>
    </output>

    <junctions>
        <no-turnarounds value="true"/>
    </junctions>

</netconvertConfiguration>
-->

<net version="1.20" junctionCornerDetail="5" limitTurnSpeed="5.50" xmlns:xsi="http://www.w3.org/2001/XMLSchema-instance" xsi:noNamespaceSchemaLocation="http://sumo.dlr.de/xsd/net_file.xsd">

    <location netOffset="1250.00,750.00" convBoundary="0.00,0.00,2500.00,1500.00" origBoundary="-1250.00,-750.00,1250.00,750.00" projParameter="!"/>

    <edge id=":intersection_1_0" function="internal">
        <lane id=":intersection_1_0_0" index="0" speed="6.51" length="9.03" shape="495.20,1010.40 494.85,1007.95 493.80,1006.20 492.05,1005.15 489.60,1004.80"/>
    </edge>
    <edge id=":intersection_1_1" function="internal">
        <lane id=":intersection_1_1_0" index="0" speed="13.89" length="20.80" shape="495.20,1010.40 495.20,989.60"/>
        <lane id=":intersection_1_1_1" index="1" speed="13.89" length="20.80" shape="498.40,1010.40 498.40,989.60"/>
    </edge>
    <edge id=":intersection_1_3" function="internal">
        <lane id=":intersection_1_3_0" index="0" speed="9.26" length="5.01" shape="498.40,1010.40 499.11,1005.44"/>
    </edge>
    <edge id=":intersection_1_16" function="internal">
        <lane id=":intersection_1_16_0" index="0" speed="9.26" length="14.34" shape="499.11,1005.44 499.15,1005.15 501.40,1001.40 505.15,999.15 510.40,998.40"/>
    </edge>
    <edge id=":intersection_1_4" function="internal">
        <lane id=":intersection_1_4_0" index="0" speed="6.51" length="9.03" shape="510.40,1004.80 507.95,1005.15 506.20,1006.20 505.15,1007.95 504.80,1010.40"/>
    </edge>
    <edge id=":intersection_1_5" function="internal">
        <lane id=":intersection_1_5_0" index="0" speed="13.89" length="20.80" shape="510.40,1004.80 489.60,1004.80"/>
        <lane id=":intersection_1_5_1" index="1" speed="13.89" length="20.80" shape="510.40,1001.60 489.60,1001.60"/>
    </edge>
    <edge id=":intersection_1_7" function="internal">
        <lane id=":intersection_1_7_0" index="0" speed="9.26" length="5.01" shape="510.40,1001.60 505.44,1000.89"/>
    </edge>
    <edge id=":intersection_1_17" function="internal">
        <lane id=":intersection_1_17_0" index="0" speed="9.26" length="14.34" shape="505.44,1000.89 505.15,1000.85 501.40,998.60 499.15,994.85 498.40,989.60"/>
    </edge>
    <edge id=":intersection_1_8" function="internal">
        <lane id=":intersection_1_8_0" index="0" speed="6.51" length="9.03" shape="504.80,989.60 505.15,992.05 506.20,993.80 507.95,994.85 510.40,995.20"/>
    </edge>
    <edge id=":intersection_1_9" function="internal">
        <lane id=":intersection_1_9_0" index="0" speed="13.89" length="20.80" shape="504.80,989.60 504.80,1010.40"/>
        <lane id=":intersection_1_9_1" index="1" speed="13.89" length="20.80" shape="501.60,989.60 501.60,1010.40"/>
    </edge>
    <edge id=":intersection_1_11" function="internal">
        <lane id=":intersection_1_11_0" index="0" speed="9.26" length="5.01" shape="501.60,989.60 500.89,994.56"/>
    </edge>
    <edge id=":intersection_1_18" function="internal">
        <lane id=":intersection_1_18_0" index="0" speed="9.26" length="14.34" shape="500.89,994.56 500.85,994.85 498.60,998.60 494.85,1000.85 489.60,1001.60"/>
    </edge>
    <edge id=":intersection_1_12" function="internal">
        <lane id=":intersection_1_12_0" index="0" speed="6.51" length="9.03" shape="489.60,995.20 492.05,994.85 493.80,993.80 494.85,992.05 495.20,989.60"/>
    </edge>
    <edge id=":intersection_1_13" function="internal">
        <lane id=":intersection_1_13_0" index="0" speed="13.89" length="20.80" shape="489.60,995.20 510.40,995.20"/>
        <lane id=":intersection_1_13_1" index="1" speed="13.89" length="20.80" shape="489.60,998.40 510.40,998.40"/>
    </edge>
    <edge id=":intersection_1_15" function="internal">
        <lane id=":intersection_1_15_0" index="0" speed="9.26" length="5.01" shape="489.60,998.40 494.56,999.11"/>
    </edge>
    <edge id=":intersection_1_19" function="internal">
        <lane id=":intersection_1_19_0" index="0" speed="9.26" length="14.34" shape="494.56,999.11 494.85,999.15 498.60,1001.40 500.85,1005.15 501.60,1010.40"/>
    </edge>
    <edge id=":intersection_2_0" function="internal">
        <lane id=":intersection_2_0_0" index="0" speed="6.51" length="9.03" shape="995.20,1010.40 994.85,1007.95 993.80,1006.20 992.05,1005.15 989.60,1004.80"/>
    </edge>
    <edge id=":intersection_2_1" function="internal">
        <lane id=":intersection_2_1_0" index="0" speed="13.89" length="20.80" shape="995.20,1010.40 995.20,989.60"/>
        <lane id=":intersection_2_1_1" index="1" speed="13.89" length="20.80" shape="998.40,1010.40 998.40,989.60"/>
    </edge>
    <edge id=":intersection_2_3" function="internal">
        <lane id=":intersection_2_3_0" index="0" speed="9.26" length="5.01" shape="998.40,1010.40 999.11,1005.44"/>
    </edge>
    <edge id=":intersection_2_16" function="internal">
        <lane id=":intersection_2_16_0" index="0" speed="9.26" length="14.34" shape="999.11,1005.44 999.15,1005.15 1001.40,1001.40 1005.15,999.15 1010.40,998.40"/>
    </edge>
    <edge id=":intersection_2_4" function="internal">
        <lane id=":intersection_2_4_0" index="0" speed="6.51" length="9.03" shape="1010.40,1004.80 1007.95,1005.15 1006.20,1006.20 1005.15,1007.95 1004.80,1010.40"/>
    </edge>
    <edge id=":intersection_2_5" function="internal">
        <lane id=":intersection_2_5_0" index="0" speed="13.89" length="20.80" shape="1010.40,1004.80 989.60,1004.80"/>
        <lane id=":intersection_2_5_1" index="1" speed="13.89" length="20.80" shape="1010.40,1001.60 989.60,1001.60"/>
    </edge>
    <edge id=":intersection_2_7" function="internal">
        <lane id=":intersection_2_7_0" index="0" speed="9.26" length="5.01" shape="1010.40,1001.60 1005.44,1000.89"/>
    </edge>
    <edge id=":intersection_2_17" function="internal">
        <lane id=":intersection_2_17_0" index="0" speed="9.26" length="14.34" shape="1005.44,1000.89 1005.15,1000.85 1001.40,998.60 999.15,994.85 998.40,989.60"/>
    </edge>
    <edge id=":intersection_2_8" function="internal">
        <lane id=":intersection_2_8_0" index="0" speed="6.51" length="9.03" shape="1004.80,989.60 1005.15,992.05 1006.20,993.80 1007.95,994.85 1010.40,995.20"/>
    </edge>
    <edge id=":intersection_2_9" function="internal">
        <lane id=":intersection_2_9_0" index="0" speed="13.89" length="20.80" shape="1004.80,989.60 1004.80,1010.40"/>
        <lane id=":intersection_2_9_1" index="1" speed="13.89" length="20.80" shape="1001.60,989.60 1001.60,1010.40"/>
    </edge>
    <edge id=":intersection_2_11" function="internal">
        <lane id=":intersection_2_11_0" index="0" speed="9.26" length="5.01" shape="1001.60,989.60 1000.89,994.56"/>
    </edge>
    <edge id=":intersection_2_18" function="internal">
        <lane id=":intersection_2_18_0" index="0" speed="9.26" length="14.34" shape="1000.89,994.56 1000.85,994.85 998.60,998.60 994.85,1000.85 989.60,1001.60"/>
    </edge>
    <edge id=":intersection_2_12" function="internal">
        <lane id=":intersection_2_12_0" index="0" speed="6.51" length="9.03" shape="989.60,995.20 992.05,994.85 993.80,993.80 994.85,992.05 995.20,989.60"/>
    </edge>
    <edge id=":intersection_2_13" function="internal">
        <lane id=":intersection_2_13_0" index="0" speed="13.89" length="20.80" shape="989.60,995.20 1010.40,995.20"/>
        <lane id=":intersection_2_13_1" index="1" speed="13.89" length="20.80" shape="989.60,998.40 1010.40,998.40"/>
    </edge>
    <edge id=":intersection_2_15" function="internal">
        <lane id=":intersection_2_15_0" index="0" speed="9.26" length="5.01" shape="989.60,998.40 994.56,999.11"/>
    </edge>
    <edge id=":intersection_2_19" function="internal">
        <lane id=":intersection_2_19_0" index="0" speed="9.26" length="14.34" shape="994.56,999.11 994.85,999.15 998.60,1001.40 1000.85,1005.15 1001.60,1010.40"/>
    </edge>
    <edge id=":intersection_3_0" function="internal">
        <lane id=":intersection_3_0_0" index="0" speed="6.51" length="9.03" shape="495.20,510.40 494.85,507.95 493.80,506.20 492.05,505.15 489.60,504.80"/>
    </edge>
    <edge id=":intersection_3_1" function="internal">
        <lane id=":intersection_3_1_0" index="0" speed="13.89" length="20.80" shape="495.20,510.40 495.20,489.60"/>
        <lane id=":intersection_3_1_1" index="1" speed="13.89" length="20.80" shape="498.40,510.40 498.40,489.60"/>
    </edge>
    <edge id=":intersection_3_3" function="internal">
        <lane id=":intersection_3_3_0" index="0" speed="9.26" length="5.01" shape="498.40,510.40 499.11,505.44"/>
    </edge>
    <edge id=":intersection_3_16" function="internal">
        <lane id=":intersection_3_16_0" index="0" speed="9.26" length="14.34" shape="499.11,505.44 499.15,505.15 501.40,501.40 505.15,499.15 510.40,498.40"/>
    </edge>
    <edge id=":intersection_3_4" function="internal">
        <lane id=":intersection_3_4_0" index="0" speed="6.51" length="9.03" shape="510.40,504.80 507.95,505.15 506.20,506.20 505.15,507.95 504.80,510.40"/>
    </edge>
    <edge id=":intersection_3_5" function="internal">
        <lane id=":intersection_3_5_0" index="0" speed="13.89" length="20.80" shape="510.40,504.80 489.60,504.80"/>
        <lane id=":intersection_3_5_1" index="1" speed="13.89" length="20.80" shape="510.40,501.60 489.60,501.60"/>
    </edge>
    <edge id=":intersection_3_7" function="internal">
        <lane id=":intersection_3_7_0" index="0" speed="9.26" length="5.01" shape="510.40,501.60 505.44,500.89"/>
    </edge>
    <edge id=":intersection_3_17" function="internal">
        <lane id=":intersection_3_17_0" index="0" speed="9.26" length="14.34" shape="505.44,500.89 505.15,500.85 501.40,498.60 499.15,494.85 498.40,489.60"/>
    </edge>
    <edge id=":intersection_3_8" function="internal">
        <lane id=":intersection_3_8_0" index="0" speed="6.51" length="9.03" shape="504.80,489.60 505.15,492.05 506.20,493.80 507.95,494.85 510.40,495.20"/>
    </edge>
    <edge id=":intersection_3_9" function="internal">
        <lane id=":intersection_3_9_0" index="0" speed="13.89" length="20.80" shape="504.80,489.60 504.80,510.40"/>
        <lane id=":intersection_3_9_1" index="1" speed="13.89" length="20.80" shape="501.60,489.60 501.60,510.40"/>
    </edge>
    <edge id=":intersection_3_11" function="internal">
        <lane id=":intersection_3_11_0" index="0" speed="9.26" length="5.01" shape="501.60,489.60 500.89,494.56"/>
    </edge>
    <edge id=":intersection_3_18" function="internal">
        <lane id=":intersection_3_18_0" index="0" speed="9.26" length="14.34" shape="500.89,494.56 500.85,494.85 498.60,498.60 494.85,500.85 489.60,501.60"/>
    </edge>
    <edge id=":intersection_3_12" function="internal">
        <lane id=":intersection_3_12_0" index="0" speed="6.51" length="9.03" shape="489.60,495.20 492.05,494.85 493.80,493.80 494.85,492.05 495.20,489.60"/>
    </edge>
    <edge id=":intersection_3_13" function="internal">
        <lane id=":intersection_3_13_0" index="0" speed="13.89" length="20.80" shape="489.60,495.20 510.40,495.20"/>
        <lane id=":intersection_3_13_1" index="1" speed="13.89" length="20.80" shape="489.60,498.40 510.40,498.40"/>
    </edge>
    <edge id=":intersection_3_15" function="internal">
        <lane id=":intersection_3_15_0" index="0" speed="9.26" length="5.01" shape="489.60,498.40 494.56,499.11"/>
    </edge>
    <edge id=":intersection_3_19" function="internal">
        <lane id=":intersection_3_19_0" index="0" speed="9.26" length="14.34" shape="494.56,499.11 494.85,499.15 498.60,501.40 500.85,505.15 501.60,510.40"/>
    </edge>
    <edge id=":intersection_4_0" function="internal">
        <lane id=":intersection_4_0_0" index="0" speed="6.51" length="9.03" shape="995.20,510.40 994.85,507.95 993.80,506.20 992.05,505.15 989.60,504.80"/>
    </edge>
    <edge id=":intersection_4_1" function="internal">
        <lane id=":intersection_4_1_0" index="0" speed="13.89" length="20.80" shape="995.20,510.40 995.20,489.60"/>
        <lane id=":intersection_4_1_1" index="1" speed="13.89" length="20.80" shape="998.40,510.40 998.40,489.60"/>
    </edge>
    <edge id=":intersection_4_3" function="internal">
        <lane id=":intersection_4_3_0" index="0" speed="9.26" length="5.01" shape="998.40,510.40 999.11,505.44"/>
    </edge>
    <edge id=":intersection_4_16" function="internal">
        <lane id=":intersection_4_16_0" index="0" speed="9.26" length="14.34" shape="999.11,505.44 999.15,505.15 1001.40,501.40 1005.15,499.15 1010.40,498.40"/>
    </edge>
    <edge id=":intersection_4_4" function="internal">
        <lane id=":intersection_4_4_0" index="0" speed="6.51" length="9.03" shape="1010.40,504.80 1007.95,505.15 1006.20,506.20 1005.15,507.95 1004.80,510.40"/>
    </edge>
    <edge id=":intersection_4_5" function="internal">
        <lane id=":intersection_4_5_0" index="0" speed="13.89" length="20.80" shape="1010.40,504.80 989.60,504.80"/>
        <lane id=":intersection_4_5_1" index="1" speed="13.89" length="20.80" shape="1010.40,501.60 989.60,501.60"/>
    </edge>
    <edge id=":intersection_4_7" function="internal">
        <lane id=":intersection_4_7_0" index="0" speed="9.26" length="5.01" shape="1010.40,501.60 1005.44,500.89"/>
    </edge>
    <edge id=":intersection_4_17" function="internal">
        <lane id=":intersection_4_17_0" index="0" speed="9.26" length="14.34" shape="1005.44,500.89 1005.15,500.85 1001.40,498.60 999.15,494.85 998.40,489.60"/>
    </edge>
    <edge id=":intersection_4_8" function="internal">
        <lane id=":intersection_4_8_0" index="0" speed="6.51" length="9.03" shape="1004.80,489.60 1005.15,492.05 1006.20,493.80 1007.95,494.85 1010.40,495.20"/>
    </edge>
    <edge id=":intersection_4_9" function="internal">
        <lane id=":intersection_4_9_0" index="0" speed="13.89" length="20.80" shape="1004.80,489.60 1004.80,510.40"/>
        <lane id=":intersection_4_9_1" index="1" speed="13.89" length="20.80" shape="1001.60,489.60 1001.60,510.40"/>
    </edge>
    <edge id=":intersection_4_11" function="internal">
        <lane id=":intersection_4_11_0" index="0" speed="9.26" length="5.01" shape="1001.60,489.60 1000.89,494.56"/>
    </edge>
    <edge id=":intersection_4_18" function="internal">
        <lane id=":intersection_4_18_0" index="0" speed="9.26" length="14.34" shape="1000.89,494.56 1000.85,494.85 998.60,498.60 994.85,500.85 989.60,501.60"/>
    </edge>
    <edge id=":intersection_4_12" function="internal">
        <lane id=":intersection_4_12_0" index="0" speed="6.51" length="9.03" shape="989.60,495.20 992.05,494.85 993.80,493.80 994.85,492.05 995.20,489.60"/>
    </edge>
    <edge id=":intersection_4_13" function="internal">
        <lane id=":intersection_4_13_0" index="0" speed="13.89" length="20.80" shape="989.60,495.20 1010.40,495.20"/>
        <lane id=":intersection_4_13_1" index="1" speed="13.89" length="20.80" shape="989.60,498.40 1010.40,498.40"/>
    </edge>
    <edge id=":intersection_4_15" function="internal">
        <lane id=":intersection_4_15_0" index="0" speed="9.26" length="5.01" shape="989.60,498.40 994.56,499.11"/>
    </edge>
    <edge id=":intersection_4_19" function="internal">
        <lane id=":intersection_4_19_0" index="0" speed="9.26" length="14.34" shape="994.56,499.11 994.85,499.15 998.60,501.40 1000.85,505.15 1001.60,510.40"/>
    </edge>
    <edge id=":intersection_5_0" function="internal">
        <lane id=":intersection_5_0_0" index="0" speed="6.51" length="9.03" shape="1495.20,1010.40 1494.85,1007.95 1493.80,1006.20 1492.05,1005.15 1489.60,1004.80"/>
    </edge>
    <edge id=":intersection_5_1" function="internal">
        <lane id=":intersection_5_1_0" index="0" speed="13.89" length="20.80" shape="1495.20,1010.40 1495.20,989.60"/>
        <lane id=":intersection_5_1_1" index="1" speed="13.89" length="20.80" shape="1498.40,1010.40 1498.40,989.60"/>
    </edge>
    <edge id=":intersection_5_3" function="internal">
        <lane id=":intersection_5_3_0" index="0" speed="9.26" length="5.01" shape="1498.40,1010.40 1499.11,1005.44"/>
    </edge>
    <edge id=":intersection_5_16" function="internal">
        <lane id=":intersection_5_16_0" index="0" speed="9.26" length="14.34" shape="1499.11,1005.44 1499.15,1005.15 1501.40,1001.40 1505.15,999.15 1510.40,998.40"/>
    </edge>
    <edge id=":intersection_5_4" function="internal">
        <lane id=":intersection_5_4_0" index="0" speed="6.51" length="9.03" shape="1510.40,1004.80 1507.95,1005.15 1506.20,1006.20 1505.15,1007.95 1504.80,1010.40"/>
    </edge>
    <edge id=":intersection_5_5" function="internal">
        <lane id=":intersection_5_5_0" index="0" speed="13.89" length="20.80" shape="1510.40,1004.80 1489.60,1004.80"/>
        <lane id=":intersection_5_5_1" index="1" speed="13.89" length="20.80" shape="1510.40,1001.60 1489.60,1001.60"/>
    </edge>
    <edge id=":intersection_5_7" function="internal">
        <lane id=":intersection_5_7_0" index="0" speed="9.26" length="5.01" shape="1510.40,1001.60 1505.44,1000.89"/>
    </edge>
    <edge id=":intersection_5_17" function="internal">
        <lane id=":intersection_5_17_0" index="0" speed="9.26" length="14.34" shape="1505.44,1000.89 1505.15,1000.85 1501.40,998.60 1499.15,994.85 1498.40,989.60"/>
    </edge>
    <edge id=":intersection_5_8" function="internal">
        <lane id=":intersection_5_8_0" index="0" speed="6.51" length="9.03" shape="1504.80,989.60 1505.15,992.05 1506.20,993.80 1507.95,994.85 1510.40,995.20"/>
    </edge>
    <edge id=":intersection_5_9" function="internal">
        <lane id=":intersection_5_9_0" index="0" speed="13.89" length="20.80" shape="1504.80,989.60 1504.80,1010.40"/>
        <lane id=":intersection_5_9_1" index="1" speed="13.89" length="20.80" shape="1501.60,989.60 1501.60,1010.40"/>
    </edge>
    <edge id=":intersection_5_11" function="internal">
        <lane id=":intersection_5_11_0" index="0" speed="9.26" length="5.01" shape="1501.60,989.60 1500.89,994.56"/>
    </edge>
    <edge id=":intersection_5_18" function="internal">
        <lane id=":intersection_5_18_0" index="0" speed="9.26" length="14.34" shape="1500.89,994.56 1500.85,994.85 1498.60,998.60 1494.85,1000.85 1489.60,1001.60"/>
    </edge>
    <edge id=":intersection_5_12" function="internal">
        <lane id=":intersection_5_12_0" index="0" speed="6.51" length="9.03" shape="1489.60,995.20 1492.05,994.85 1493.80,993.80 1494.85,992.05 1495.20,989.60"/>
    </edge>
    <edge id=":intersection_5_13" function="internal">
        <lane id=":intersection_5_13_0" index="0" speed="13.89" length="20.80" shape="1489.60,995.20 1510.40,995.20"/>
        <lane id=":intersection_5_13_1" index="1" speed="13.89" length="20.80" shape="1489.60,998.40 1510.40,998.40"/>
    </edge>
    <edge id=":intersection_5_15" function="internal">
        <lane id=":intersection_5_15_0" index="0" speed="9.26" length="5.01" shape="1489.60,998.40 1494.56,999.11"/>
    </edge>
    <edge id=":intersection_5_19" function="internal">
        <lane id=":intersection_5_19_0" index="0" speed="9.26" length="14.34" shape="1494.56,999.11 1494.85,999.15 1498.60,1001.40 1500.85,1005.15 1501.60,1010.40"/>
    </edge>
    <edge id=":intersection_6_0" function="internal">
        <lane id=":intersection_6_0_0" index="0" speed="6.51" length="9.03" shape="1995.20,1010.40 1994.85,1007.95 1993.80,1006.20 1992.05,1005.15 1989.60,1004.80"/>
    </edge>
    <edge id=":intersection_6_1" function="internal">
        <lane id=":intersection_6_1_0" index="0" speed="13.89" length="20.80" shape="1995.20,1010.40 1995.20,989.60"/>
        <lane id=":intersection_6_1_1" index="1" speed="13.89" length="20.80" shape="1998.40,1010.40 1998.40,989.60"/>
    </edge>
    <edge id=":intersection_6_3" function="internal">
        <lane id=":intersection_6_3_0" index="0" speed="9.26" length="5.01" shape="1998.40,1010.40 1999.11,1005.44"/>
    </edge>
    <edge id=":intersection_6_16" function="internal">
        <lane id=":intersection_6_16_0" index="0" speed="9.26" length="14.34" shape="1999.11,1005.44 1999.15,1005.15 2001.40,1001.40 2005.15,999.15 2010.40,998.40"/>
    </edge>
    <edge id=":intersection_6_4" function="internal">
        <lane id=":intersection_6_4_0" index="0" speed="6.51" length="9.03" shape="2010.40,1004.80 2007.95,1005.15 2006.20,1006.20 2005.15,1007.95 2004.80,1010.40"/>
    </edge>
    <edge id=":intersection_6_5" function="internal">
        <lane id=":intersection_6_5_0" index="0" speed="13.89" length="20.80" shape="2010.40,1004.80 1989.60,1004.80"/>
        <lane id=":intersection_6_5_1" index="1" speed="13.89" length="20.80" shape="2010.40,1001.60 1989.60,1001.60"/>
    </edge>
    <edge id=":intersection_6_7" function="internal">
        <lane id=":intersection_6_7_0" index="0" speed="9.26" length="5.01" shape="2010.40,1001.60 2005.44,1000.89"/>
    </edge>
    <edge id=":intersection_6_17" function="internal">
        <lane id=":intersection_6_17_0" index="0" speed="9.26" length="14.34" shape="2005.44,1000.89 2005.15,1000.85 2001.40,998.60 1999.15,994.85 1998.40,989.60"/>
    </edge>
    <edge id=":intersection_6_8" function="internal">
        <lane id=":intersection_6_8_0" index="0" speed="6.51" length="9.03" shape="2004.80,989.60 2005.15,992.05 2006.20,993.80 2007.95,994.85 2010.40,995.20"/>
    </edge>
    <edge id=":intersection_6_9" function="internal">
        <lane id=":intersection_6_9_0" index="0" speed="13.89" length="20.80" shape="2004.80,989.60 2004.80,1010.40"/>
        <lane id=":intersection_6_9_1" index="1" speed="13.89" length="20.80" shape="2001.60,989.60 2001.60,1010.40"/>
    </edge>
    <edge id=":intersection_6_11" function="internal">
        <lane id=":intersection_6_11_0" index="0" speed="9.26" length="5.01" shape="2001.60,989.60 2000.89,994.56"/>
    </edge>
    <edge id=":intersection_6_18" function="internal">
        <lane id=":intersection_6_18_0" index="0" speed="9.26" length="14.34" shape="2000.89,994.56 2000.85,994.85 1998.60,998.60 1994.85,1000.85 1989.60,1001.60"/>
    </edge>
    <edge id=":intersection_6_12" function="internal">
        <lane id=":intersection_6_12_0" index="0" speed="6.51" length="9.03" shape="1989.60,995.20 1992.05,994.85 1993.80,993.80 1994.85,992.05 1995.20,989.60"/>
    </edge>
    <edge id=":intersection_6_13" function="internal">
        <lane id=":intersection_6_13_0" index="0" speed="13.89" length="20.80" shape="1989.60,995.20 2010.40,995.20"/>
        <lane id=":intersection_6_13_1" index="1" speed="13.89" length="20.80" shape="1989.60,998.40 2010.40,998.40"/>
    </edge>
    <edge id=":intersection_6_15" function="internal">
        <lane id=":intersection_6_15_0" index="0" speed="9.26" length="5.01" shape="1989.60,998.40 1994.56,999.11"/>
    </edge>
    <edge id=":intersection_6_19" function="internal">
        <lane id=":intersection_6_19_0" index="0" speed="9.26" length="14.34" shape="1994.56,999.11 1994.85,999.15 1998.60,1001.40 2000.85,1005.15 2001.60,1010.40"/>
    </edge>
    <edge id=":intersection_7_0" function="internal">
        <lane id=":intersection_7_0_0" index="0" speed="6.51" length="9.03" shape="1495.20,510.40 1494.85,507.95 1493.80,506.20 1492.05,505.15 1489.60,504.80"/>
    </edge>
    <edge id=":intersection_7_1" function="internal">
        <lane id=":intersection_7_1_0" index="0" speed="13.89" length="20.80" shape="1495.20,510.40 1495.20,489.60"/>
        <lane id=":intersection_7_1_1" index="1" speed="13.89" length="20.80" shape="1498.40,510.40 1498.40,489.60"/>
    </edge>
    <edge id=":intersection_7_3" function="internal">
        <lane id=":intersection_7_3_0" index="0" speed="9.26" length="5.01" shape="1498.40,510.40 1499.11,505.44"/>
    </edge>
    <edge id=":intersection_7_16" function="internal">
        <lane id=":intersection_7_16_0" index="0" speed="9.26" length="14.34" shape="1499.11,505.44 1499.15,505.15 1501.40,501.40 1505.15,499.15 1510.40,498.40"/>
    </edge>
    <edge id=":intersection_7_4" function="internal">
        <lane id=":intersection_7_4_0" index="0" speed="6.51" length="9.03" shape="1510.40,504.80 1507.95,505.15 1506.20,506.20 1505.15,507.95 1504.80,510.40"/>
    </edge>
    <edge id=":intersection_7_5" function="internal">
        <lane id=":intersection_7_5_0" index="0" speed="13.89" length="20.80" shape="1510.40,504.80 1489.60,504.80"/>
        <lane id=":intersection_7_5_1" index="1" speed="13.89" length="20.80" shape="1510.40,501.60 1489.60,501.60"/>
    </edge>
    <edge id=":intersection_7_7" function="internal">
        <lane id=":intersection_7_7_0" index="0" speed="9.26" length="5.01" shape="1510.40,501.60 1505.44,500.89"/>
    </edge>
    <edge id=":intersection_7_17" function="internal">
        <lane id=":intersection_7_17_0" index="0" speed="9.26" length="14.34" shape="1505.44,500.89 1505.15,500.85 1501.40,498.60 1499.15,494.85 1498.40,489.60"/>
    </edge>
    <edge id=":intersection_7_8" function="internal">
        <lane id=":intersection_7_8_0" index="0" speed="6.51" length="9.03" shape="1504.80,489.60 1505.15,492.05 1506.20,493.80 1507.95,494.85 1510.40,495.20"/>
    </edge>
    <edge id=":intersection_7_9" function="internal">
        <lane id=":intersection_7_9_0" index="0" speed="13.89" length="20.80" shape="1504.80,489.60 1504.80,510.40"/>
        <lane id=":intersection_7_9_1" index="1" speed="13.89" length="20.80" shape="1501.60,489.60 1501.60,510.40"/>
    </edge>
    <edge id=":intersection_7_11" function="internal">
        <lane id=":intersection_7_11_0" index="0" speed="9.26" length="5.01" shape="1501.60,489.60 1500.89,494.56"/>
    </edge>
    <edge id=":intersection_7_18" function="internal">
        <lane id=":intersection_7_18_0" index="0" speed="9.26" length="14.34" shape="1500.89,494.56 1500.85,494.85 1498.60,498.60 1494.85,500.85 1489.60,501.60"/>
    </edge>
    <edge id=":intersection_7_12" function="internal">
        <lane id=":intersection_7_12_0" index="0" speed="6.51" length="9.03" shape="1489.60,495.20 1492.05,494.85 1493.80,493.80 1494.85,492.05 1495.20,489.60"/>
    </edge>
    <edge id=":intersection_7_13" function="internal">
        <lane id=":intersection_7_13_0" index="0" speed="13.89" length="20.80" shape="1489.60,495.20 1510.40,495.20"/>
        <lane id=":intersection_7_13_1" index="1" speed="13.89" length="20.80" shape="1489.60,498.40 1510.40,498.40"/>
    </edge>
    <edge id=":intersection_7_15" function="internal">
        <lane id=":intersection_7_15_0" index="0" speed="9.26" length="5.01" shape="1489.60,498.40 1494.56,499.11"/>
    </edge>
    <edge id=":intersection_7_19" function="internal">
        <lane id=":intersection_7_19_0" index="0" speed="9.26" length="14.34" shape="1494.56,499.11 1494.85,499.15 1498.60,501.40 1500.85,505.15 1501.60,510.40"/>
    </edge>
    <edge id=":intersection_8_0" function="internal">
        <lane id=":intersection_8_0_0" index="0" speed="6.51" length="9.03" shape="1995.20,510.40 1994.85,507.95 1993.80,506.20 1992.05,505.15 1989.60,504.80"/>
    </edge>
    <edge id=":intersection_8_1" function="internal">
        <lane id=":intersection_8_1_0" index="0" speed="13.89" length="20.80" shape="1995.20,510.40 1995.20,489.60"/>
        <lane id=":intersection_8_1_1" index="1" speed="13.89" length="20.80" shape="1998.40,510.40 1998.40,489.60"/>
    </edge>
    <edge id=":intersection_8_3" function="internal">
        <lane id=":intersection_8_3_0" index="0" speed="9.26" length="5.01" shape="1998.40,510.40 1999.11,505.44"/>
    </edge>
    <edge id=":intersection_8_16" function="internal">
        <lane id=":intersection_8_16_0" index="0" speed="9.26" length="14.34" shape="1999.11,505.44 1999.15,505.15 2001.40,501.40 2005.15,499.15 2010.40,498.40"/>
    </edge>
    <edge id=":intersection_8_4" function="internal">
        <lane id=":intersection_8_4_0" index="0" speed="6.51" length="9.03" shape="2010.40,504.80 2007.95,505.15 2006.20,506.20 2005.15,507.95 2004.80,510.40"/>
    </edge>
    <edge id=":intersection_8_5" function="internal">
        <lane id=":intersection_8_5_0" index="0" speed="13.89" length="20.80" shape="2010.40,504.80 1989.60,504.80"/>
        <lane id=":intersection_8_5_1" index="1" speed="13.89" length="20.80" shape="2010.40,501.60 1989.60,501.60"/>
    </edge>
    <edge id=":intersection_8_7" function="internal">
        <lane id=":intersection_8_7_0" index="0" speed="9.26" length="5.01" shape="2010.40,501.60 2005.44,500.89"/>
    </edge>
    <edge id=":intersection_8_17" function="internal">
        <lane id=":intersection_8_17_0" index="0" speed="9.26" length="14.34" shape="2005.44,500.89 2005.15,500.85 2001.40,498.60 1999.15,494.85 1998.40,489.60"/>
    </edge>
    <edge id=":intersection_8_8" function="internal">
        <lane id=":intersection_8_8_0" index="0" speed="6.51" length="9.03" shape="2004.80,489.60 2005.15,492.05 2006.20,493.80 2007.95,494.85 2010.40,495.20"/>
    </edge>
    <edge id=":intersection_8_9" function="internal">
        <lane id=":intersection_8_9_0" index="0" speed="13.89" length="20.80" shape="2004.80,489.60 2004.80,510.40"/>
        <lane id=":intersection_8_9_1" index="1" speed="13.89" length="20.80" shape="2001.60,489.60 2001.60,510.40"/>
    </edge>
    <edge id=":intersection_8_11" function="internal">
        <lane id=":intersection_8_11_0" index="0" speed="9.26" length="5.01" shape="2001.60,489.60 2000.89,494.56"/>
    </edge>
    <edge id=":intersection_8_18" function="internal">