<?xml version="1.0" encoding="UTF-8"?>
<nodes xmlns:xsi="http://www.w3.org/2001/XMLSchema-instance" xsi:noNamespaceSchemaLocation="http://sumo.dlr.de/xsd/nodes_file.xsd">
    <node id="n_north" x="0.00" y="200.00" type="priority"/>
    <node id="n_south" x="0.00" y="-200.00" type="priority"/>
    <node id="n_east" x="200.00" y="0.00" type="priority"/>
    <node id="n_west" x="-200.00" y="0.00" type="priority"/>
    <node id="center" x="0.00" y="0.00" type="traffic_light"/>
</nodes>
