<?xml version="1.0" encoding="UTF-8"?>
<edges xmlns:xsi="http://www.w3.org/2001/XMLSchema-instance" xsi:noNamespaceSchemaLocation="http://sumo.dlr.de/xsd/edges_file.xsd">
    <edge id="north_in" from="n_north" to="center" numLanes="2" speed="13.89"/>
    <edge id="south_in" from="n_south" to="center" numLanes="2" speed="13.89"/>
    <edge id="east_in" from="n_east" to="center" numLanes="2" speed="13.89"/>
    <edge id="west_in" from="n_west" to="center" numLanes="2" speed="13.89"/>
    
    <edge id="north_out" from="center" to="n_north" numLanes="2" speed="13.89"/>
    <edge id="south_out" from="center" to="n_south" numLanes="2" speed="13.89"/>
    <edge id="east_out" from="center" to="n_east" numLanes="2" speed="13.89"/>
    <edge id="west_out" from="center" to="n_west" numLanes="2" speed="13.89"/>
</edges>
