<?xml version="1.0" encoding="UTF-8"?>
<routes xmlns:xsi="http://www.w3.org/2001/XMLSchema-instance" xsi:noNamespaceSchemaLocation="http://sumo.dlr.de/xsd/routes_file.xsd">

    <!-- Vehicle Type -->
    <vType id="car" accel="2.6" decel="4.5" sigma="0.5" length="5.0" minGap="2.5" maxSpeed="50.0" guiShape="passenger"/>

    <!-- North-South Traffic -->
    <flow id="north_south" type="car" begin="0" end="3600" probability="0.25" from="north_in" to="south_out"/>
    <flow id="south_north" type="car" begin="0" end="3600" probability="0.25" from="south_in" to="north_out"/>

    <!-- East-West Traffic -->
    <flow id="east_west" type="car" begin="0" end="3600" probability="0.20" from="east_in" to="west_out"/>
    <flow id="west_east" type="car" begin="0" end="3600" probability="0.20" from="west_in" to="east_out"/>

</routes>
