<?xml version="1.0" encoding="UTF-8"?>
<additional xmlns:xsi="http://www.w3.org/2001/XMLSchema-instance" xsi:noNamespaceSchemaLocation="http://sumo.dlr.de/xsd/additional_file.xsd">
    
    <!-- Traffic Light Logic for center intersection -->
    <tlLogic id="center" type="static" programID="0" offset="0">
        <!-- Phase 0: North-South Green, East-West Red -->
        <phase duration="30" state="GGrrGGrr"/>
        <!-- Phase 1: East-West Green, North-South Red -->
        <phase duration="30" state="rrGGrrGG"/>
    </tlLogic>
    
</additional>
